# Diagnostic Package Choices
#--------------------
#  dumpAtLast (logical): always write output at the end of simulation (default=F)
#  diag_mnc   (logical): write to NetCDF files (default=useMNC)
#--for each output-stream:
#  fileName(n) : prefix of the output file name (max 80c long) for outp.stream n
#  frequency(n):< 0 : write snap-shot output every |frequency| seconds
#               > 0 : write time-average output every frequency seconds
#  timePhase(n)     : write at time = timePhase + multiple of |frequency|
#    averagingFreq  : frequency (in s) for periodic averaging interval
#    averagingPhase : phase     (in s) for periodic averaging interval
#    repeatCycle    : number of averaging intervals in 1 cycle
#  levels(:,n) : list of levels to write to file (Notes: declared as REAL)
#                when this entry is missing, select all common levels of this list
#  fields(:,n) : list of selected diagnostics fields (8.c) in outp.stream n
#                (see "available_diagnostics.log" file for the full list of diags)
#  missing_value(n) : missing value for real-type fields in output file "n"
#  fileFlags(n)     : specific code (8c string) for output file "n"
#--------------------
 &DIAGNOSTICS_LIST
# diag_mnc     = .FALSE.,
# Standard diagnostics
  fields(1:4,1)  = 'THETA','UVEL','VVEL','WVEL',
  fileName(1) = 'standardDiag',
  frequency(1) = -1800.,
  timePhase(1) = 0.,

# Mixing diagnostics
#  fields(1:3,2) = 'KVDIFF', 'KLdiffKr', 'KLeps',
#  fileName(2) = 'mixingDiag',
#  frequency(2) = -43200.,
#  timePhase(2) = 0.,

# Mean mixing diagnostics
#  fields(1:3,3) = 'KVDIFF', 'KLdiffKr', 'KLeps',
#  fileName(3) = 'meanmixDiag',
#  frequency(3) = 43200.,
#  frequency(3) = 3600.,

# Tracer01 budget diagnostics
#  fields(1:8, 4) = 'TRAC01', 'Tp_gTr01',
#                  'DFrITr01', 'DFxETr01', 'DFyETr01',
#                  'ADVrTr01', 'ADVxTr01', 'ADVyTr01',
#  fileName(4) = 'tracer01Diag',
#  frequency(4) = -3600.,
#  timePhase(4) = 0.,

# Tracer02 budget diagnostics
#  fields(1:8, 5) = 'TRAC02', 'Tp_gTr02',
#                  'DFrITr02', 'DFxETr02', 'DFyETr02',
#                  'ADVrTr02', 'ADVxTr02', 'ADVyTr02',
#  fileName(5) = 'tracer02Diag',
#  frequency(5) = -3600.,
#  timePhase(5) = 0.,

# Tracer03 budget diagnostics
#  fields(1:8, 6) = 'TRAC03', 'Tp_gTr03',
#                  'DFrITr03', 'DFxETr03', 'DFyETr03',
#                  'ADVrTr03', 'ADVxTr03', 'ADVyTr03',
#  fileName(6) = 'tracer03Diag',
#  frequency(6) = -3600.,
#  timePhase(6) = 0.,

# Temperature budget diagnostics
#  fields(1:12,7) = 'THETA', 'ADVr_TH', 'ADVx_TH', 'ADVy_TH',
#                  'DFrI_TH', 'DFxE_TH', 'DFyE_TH',
#                  'WVEL', 'UVEL', 'VVEL', 'TOTTTEND',
#                  'KVDIFF  ',
#  fileName(7) = 'budgetDiag',
#  frequency(7) = -3600.,
#  timePhase(7) = 0.,

# Snapshots of key variables at a single level
#  fields(1:4,6)  = 'THETA', 'UVEL', 'VVEL', 'WVEL',
#  levels(1:4,6) = 32., 55., 73., 100.,
#  fileName(6) = 'levelDiag',
#  frequency(6) = -21600.,
#  timePhase(6) = 0.,

# High frequency tracer output
#  fields(1:3,7) = 'TRAC01', 'TRAC02', 'TRAC03',
#  fileName(7) = 'tracerDiag',
#  frequency(7) = 86400.,
#  frequency(7) = -1800.,
 &

#--------------------
# Parameter for Diagnostics of per level statistics:
#--------------------
#  diagSt_mnc (logical): write stat-diags to NetCDF files (default=diag_mnc)
#  diagSt_regMaskFile : file containing the region-mask to read-in
#  nSetRegMskFile   : number of region-mask sets within the region-mask file
#  set_regMask(i)   : region-mask set-index that identifies the region "i"
#  val_regMask(i)   : region "i" identifier value in the region mask
#--for each output-stream:
#  stat_fName(n) : prefix of the output file name (max 80c long) for outp.stream n
#  stat_freq(n):< 0 : write snap-shot output every |stat_freq| seconds
#               > 0 : write time-average output every stat_freq seconds
#  stat_phase(n)    : write at time = stat_phase + multiple of |stat_freq|
#  stat_region(:,n) : list of "regions" (default: 1 region only=global)
#  stat_fields(:,n) : list of selected diagnostics fields (8.c) in outp.stream n
#                (see "available_diagnostics.log" file for the full list of diags)
#--------------------
 &DIAG_STATIS_PARMS
# an example just to check the agreement with MONITOR output:
 stat_fields(1:5,1)  = 'ETAN    ','UVEL    ','VVEL    ','WVEL    ', 'THETA   ',
  stat_fName(1) = 'dynStDiag',
   stat_freq(1) = -864000.,
  stat_phase(1) = 0.,
 &

