# Packages
 &PACKAGES
 useDiagnostics=.TRUE.,
 useMYPACKAGE=.TRUE.,
 useKL10 = .FALSE.,
 usePTRACERS=.FALSE.,
 &
