# Packages
 &PACKAGES
 useDiagnostics=.TRUE.,
 useMNC=.FALSE.,
 useMYPACKAGE=.TRUE.,
 &
