# Packages
 &PACKAGES
 useDiagnostics=.TRUE.,
 useMNC=.FALSE.,
 useKPP=.FALSE.,
 &
