# Packages
 &PACKAGES
 useDiagnostics=.TRUE.,
 useMYPACKAGE=.TRUE.,
 usePTRACERS=.TRUE.,
 &
