# Packages
 &PACKAGES
 useDiagnostics=.TRUE.,
 useMYPACKAGE=.TRUE.,
 useKL10 = .TRUE.,
 usePTRACERS= .TRUE.,
 &
